/*--------------------------------*- C++ -*----------------------------------*\
| =========                 |                                                 |
| \\      /  F ield         | OpenFOAM: The Open Source CFD Toolbox           |
|  \\    /   O peration     | Version:  3.0.1                                 |
|   \\  /    A nd           | Web:      www.OpenFOAM.org                      |
|    \\/     M anipulation  |                                                 |
\*---------------------------------------------------------------------------*/
FoamFile
{
    version     2.0;
    format      ascii;
    class       dictionary;
    object      fvSchemes;
}
// * * * * * * * * * * * * * * * * * * * * * * * * * * * * * * * * * * * * * //

ddtSchemes
{
    default         {{values.ddtSchemes.default}};
}

gradSchemes
{
    default         {{values.gradSchemes.default}};
}

divSchemes
{
    default             {{values.divSchemes.default}};
    div(phi,U)          {{values.divSchemes.divPhiU}};
    div(phi,k)          {{values.divSchemes.divPhiK}};
    div(phi,B)          {{values.divSchemes.divPhiB}};
    div(B)              {{values.divSchemes.divB}};
    div(phi,nuTilda)    {{values.divSchemes.divPhiNuTilda}};
    div((nuEff*dev2(T(grad(U))))) {{values.divSchemes.divNuEff}};
}

laplacianSchemes
{
    default         {{values.laplacianSchemes.default}};
}

interpolationSchemes
{
    default         {{values.interpolationSchemes.default}};
}

snGradSchemes
{
    default         {{values.snGradSchemes.default}};
}

wallDist
{
    method {{values.wallDist.method}};
}


// ************************************************************************* //