/*--------------------------------*- C++ -*----------------------------------*\
| =========                 |                                                 |
| \\      /  F ield         | OpenFOAM: The Open Source CFD Toolbox           |
|  \\    /   O peration     | Version:  3.0.1                                 |
|   \\  /    A nd           | Web:      www.OpenFOAM.org                      |
|    \\/     M anipulation  |                                                 |
\*---------------------------------------------------------------------------*/
FoamFile
{
    version     2.0;
    format      ascii;
    class       dictionary;
    object      fvSolution;
}

// * * * * * * * * * * * * * * * * * * * * * * * * * * * * * * * * * * * * * //

solvers
{
    p
    {
        solver          {{values.solvers.0.parameterProperties.solver}};
        tolerance       {{values.solvers.0.parameterProperties.tolerance}};
        relTol          {{values.solvers.0.parameterProperties.relTol}};
        smoother        {{values.solvers.0.parameterProperties.smoother}};
    }

    pFinal
    {
        $p;
        smoother        {{values.solvers.1.parameterProperties.smoother}};
        tolerance       {{values.solvers.1.parameterProperties.tolerance}};
        relTol          {{values.solvers.1.parameterProperties.relTol}};
    }

    "(U|k|nuTilda)"
    {
        solver          {{values.solvers.2.parameterProperties.solver}};
        smoother        {{values.solvers.2.parameterProperties.smoother}};
        tolerance       {{values.solvers.2.parameterProperties.tolerance}};
        relTol          {{values.solvers.2.parameterProperties.relTol}};
    }

    "(U|k|nuTilda)Final"
    {
        $U;
        tolerance      {{values.solvers.3.parameterProperties.tolerance}};
        relTol         {{values.solvers.3.parameterProperties.relTol}};
    }
}

PIMPLE
{
    nOuterCorrectors            {{values.algorithms.0.PIMPLEproperties.nOuterCorrectorsPIMPLE}};
    nCorrectors                 {{values.algorithms.0.PIMPLEproperties.nCorrectorsPIMPLE}};
    nNonOrthogonalCorrectors    {{values.algorithms.0.PIMPLEproperties.nNonOrthogonalCorrectorsPIMPLE}};
    pRefCell                    {{values.algorithms.0.PIMPLEproperties.pRefCellPIMPLE}};
    pRefValue                   {{values.algorithms.0.PIMPLEproperties.pRefValuePIMPLE}};
    momentumPredictor           {{values.algorithms.0.PIMPLEproperties.momentumPredictorPIMPLE}};
}


// ************************************************************************* //