/*--------------------------------*- C++ -*----------------------------------*\
| =========                 |                                                 |
| \\      /  F ield         | OpenFOAM: The Open Source CFD Toolbox           |
|  \\    /   O peration     | Version:  3.0.1                                 |
|   \\  /    A nd           | Web:      www.OpenFOAM.org                      |
|    \\/     M anipulation  |                                                 |
\*---------------------------------------------------------------------------*/
FoamFile
{
    version     2.0;
    format      ascii;
    class       dictionary;
    object      fvSchemes;
}
// * * * * * * * * * * * * * * * * * * * * * * * * * * * * * * * * * * * * * //

ddtSchemes
{
    default         steadyState;
}

gradSchemes
{
    default           Gauss linear;

    grad(U)           cellLimited Gauss linear 1;
    grad(k)           cellLimited Gauss linear 1;
    grad(epsilon)     cellLimited Gauss linear 1;
}

divSchemes
{
    default               none;

    div(phi,U)            bounded Gauss upwind;

    turbulence            ;
    div(phi,k)            bounded Gauss upwind;

    div(phi,epsilon)      bounded Gauss upwind;
    div(phi,omega)        bounded Gauss upwind;

    div((nuEff*dev2(T(grad(U))))) Gauss linear;
}

laplacianSchemes
{
    default         Gauss linear corrected;
}

interpolationSchemes
{
    default         linear;
}

snGradSchemes
{
    default       corrected;
}

wallDist
{
    method      meshWave;
}

// ************************************************************************* //