/*--------------------------------*- C++ -*----------------------------------*\
| =========                 |                                                 |
| \\      /  F ield         | OpenFOAM: The Open Source CFD Toolbox           |
|  \\    /   O peration     | Version:  dev                                   |
|   \\  /    A nd           | Web:      www.OpenFOAM.org                      |
|    \\/     M anipulation  |                                                 |
\*---------------------------------------------------------------------------*/
FoamFile
{
    version     2.0;
    format      ascii;
    class       dictionary;
    location    "constant";
    object      kinematicCloudProperties;
}
// * * * * * * * * * * * * * * * * * * * * * * * * * * * * * * * * * * * * * //


{%- import 'openFOAM/dispersion/KinematicCloudProperties/injectorModels.jinja' as injection %}
{%- import 'openFOAM/dispersion/KinematicCloudProperties/patchInteractionModels.jinja' as interaction %}

solution
{
    active          {{activeCloud}};
    coupled         false;
    transient       yes;
    cellValueSourceCorrection off;
    maxCo           0.3;

    interpolationSchemes
    {
        rho             cell;
        U_0_Interpolated               cellPoint;
        mu              cell;
    }

    integrationSchemes
    {
        U               Euler;
    }
    model {{stochasticTurbulenceModel}};
    passive_tracer {% if passiveTrace%} true{% else %} false{%endif%};
}

constantProperties
{
    rho0            964;
    youngsModulus   6e8;
    poissonsRatio   0.35;
}

subModels
{
    particleForces
    {
     {% for forceName in forces -%}
        {{forceName}};
     {%- endfor -%}
    }

    injectionModels
    {
        {% for injectorName,injectorData in injectors.items() -%}
             {{ injection.injectors(injectorName,injectorData) }}
        {%- endfor -%}

    }

    dispersionModel none;

    {{interaction.patchInteraction(patchInteraction)}}


    surfaceFilmModel none;

    stochasticCollisionModel none;

    collisionModel none;

    wallModel    none;

    }
}


cloudFunctions
{}


// ************************************************************************* //

