/*--------------------------------*- C++ -*----------------------------------*\
| =========                 |                                                 |
| \\      /  F ield         | OpenFOAM: The Open Source CFD Toolbox           |
|  \\    /   O peration     | Version:  3.0.1                                 |
|   \\  /    A nd           | Web:      www.OpenFOAM.org                      |
|    \\/     M anipulation  |                                                 |
\*---------------------------------------------------------------------------*/
FoamFile
{
    version       2.0;
    format        ascii;
    class         dictionary;
    object        fvSolution;
}
// * * * * * * * * * * * * * * * * * * * * * * * * * * * * * * * * * * * * * //

solvers
{
    P
    {
        solver        GAMG;
        smoother      GaussSeidel;
        tolerance     1e-06;
        relTol        0.1;
        cacheAgglomeration on;
        agglomerator faceAreaPair;
        nCellsInCoarsestLevel 10;
        mergeLevels   1;

    }
    "(U|k|omega|epsilon)"
    {
        solver        smoothSolver;
        smoother      symGaussSeidel;
        tolerance     1e-06;
        relTol        0.1;

    }


}
potentialFlow
{
    nNonOrthogonalCorrectors 10;

}
relaxationFactors
{
    fields
    {
        P             0.3;

    }
    equations
    {
        U             0.7;
        "(k|omega|epsilon).*" 0.7;

    }

}
SIMPLE
{
    residualControl
    {
        P             0.0001;
        U             0.0001;
        "(k|omega|epsilon)" 0.0001;

    }
    nNonOrthogonalCorrectorsSIMPLE 5;
    pRefCellSIMPLE 0;
    pRefValueSIMPLE 0;

}

// ************************************************************************* //

