/*--------------------------------*- C++ -*----------------------------------*\
| =========                 |                                                 |
| \\      /  F ield         | OpenFOAM: The Open Source CFD Toolbox           |
|  \\    /   O peration     | Version:  3.0.1                                 |
|   \\  /    A nd           | Web:      www.OpenFOAM.org                      |
|    \\/     M anipulation  |                                                 |
\*---------------------------------------------------------------------------*/
FoamFile
{
    version     2.0;
    format      ascii;
    class       dictionary;
    object      physicalProperties;
}
// * * * * * * * * * * * * * * * * * * * * * * * * * * * * * * * * * * * * * //

transportModel  {{transportModel}};

nu              [0 2 -1 0 0 0 0] {{nu}};

{% if rhoInf is defined %}
rhoInf          [1 -3 0 0 0 0 0] {{rhoInf}};
{% endif %}

{% for varname,vardata in parameters.items() -%}
    {{varname}} {{varname if vardata.get('printName',false) else '' }} {{vardata['dimensions']}} {{vardata['value']}};
{% endfor %}

// ************************************************************************* //