/*--------------------------------*- C++ -*----------------------------------*\
| =========                 |                                                 |
| \\      /  F ield         | OpenFOAM: The Open Source CFD Toolbox           |
|  \\    /   O peration     | Version:  3.0.1                                 |
|   \\  /    A nd           | Web:      www.OpenFOAM.org                      |
|    \\/     M anipulation  |                                                 |
\*---------------------------------------------------------------------------*/
FoamFile
{
    version     2.0;
    format      ascii;
    class       dictionary;
    object      blockMeshDict;
}
// * * * * * * * * * * * * * * * * * * * * * * * * * * * * * * * * * * * * * //



convertToMeters {{Properties.Property03.current_val}};

vertices
(
    {%- for x in range(vertices|length) %}
    ({{vertices[x]}})
    {%- endfor %}

);

{%- import "openFOAM/simpleFOAM/MacroSBlockMeshGrading.jinja" as Grading %}

blocks
(
    hex (0 1 2 3 4 5 6 7)
    {{Properties.Property04.current_val}}
    simpleGrading
    (
        {{Grading.macroBlockMeshGrading(Properties.Property05.current_val)}}
        {{Grading.macroBlockMeshGrading(Properties.Property06.current_val)}}
        {{Grading.macroBlockMeshGrading(Properties.Property07.current_val)}}
    )
);

edges
(
);

boundary
(
    {%- for x in range(boundary|length) -%}
    {%- set tmpBoundary=boundary[x] %}
    {{tmpBoundary.Name }}
    {
        type {{tmpBoundary.Type}};
        {%- if tmpBoundary.Type == "cyclic" %}
        neighbourPatch {{tmpBoundary.Properties.Property01.current_val}};
        {%- endif %}
        faces
        (
            {%- for key,value in tmpBoundary.faces.items() %}
            ({{value.vertices}})
            {%- endfor %}
        );
    }
    {%- endfor %}

);

mergePatchPairs
(
);

// ************************************************************************* //