/*--------------------------------*- C++ -*----------------------------------*\
| =========                 |                                                 |
| \\      /  F ield         | OpenFOAM: The Open Source CFD Toolbox           |
|  \\    /   O peration     | Version:  3.0.1                                 |
|   \\  /    A nd           | Web:      www.OpenFOAM.org                      |
|    \\/     M anipulation  |                                                 |
\*---------------------------------------------------------------------------*/
FoamFile
{
    version     2.0;
    format      ascii;
    class       dictionary;
    object      RASProperties;
}
// * * * * * * * * * * * * * * * * * * * * * * * * * * * * * * * * * * * * * //

simulationType {{simulationType}};

RAS
{
    RASModel     {{RAS.RASModel}};

    {{ 'turbulence   on;' if RAS.turbulence else 'turbulence    off;' }};

    {{ 'printCoeffs  on;' if RAS.printCoeffs else 'printCoeffs   off;' }};

}

// ************************************************************************* //