/*--------------------------------*- C++ -*----------------------------------*\
| =========                 |                                                 |
| \\      /  F ield         | OpenFOAM: The Open Source CFD Toolbox           |
|  \\    /   O peration     | Version:  3.0.1                                 |
|   \\  /    A nd           | Web:      www.OpenFOAM.org                      |
|    \\/     M anipulation  |                                                 |
\*---------------------------------------------------------------------------*/
FoamFile
{
    version     2.0;
    format      ascii;
    class       dictionary;
    object      fvSchemes;
}
// * * * * * * * * * * * * * * * * * * * * * * * * * * * * * * * * * * * * * //

ddtSchemes
{
    default         Euler;
}

gradSchemes
{
    default           Gauss linear;
    }

divSchemes
{
    default               Gauss linear ;
    div(phi,U) Gauss SuperBeeV ;
    div(phi,k) Gauss UMIST ;
    div(phi,epsilon) Gauss UMIST ;
    div(div((nuEff*dev2(T(grad(U)))))) Gauss linear ;}

laplacianSchemes
{
    default               Gauss linear uncorrected;
    laplacian((1|A(U)),p) Gauss linear uncorrected;
  laplacian(nuEff,U) Gauss linear uncorrected;
  laplacian(AnisotropicDiffusion,U) Gauss linear uncorrected;
  laplacian(DkEff,k) Gauss linear uncorrected;
  laplacian(DepsilonEff,epsilon) Gauss linear uncorrected;
  }

interpolationSchemes
{
    default         linear;
}

snGradSchemes
{
    default       uncorrected;
}

wallDist
{
    method      meshWave;
}

fluxRequired
{
    default         no;
    p_rgh;
}

// ************************************************************************* //