/*--------------------------------*- C++ -*----------------------------------*\
| =========                 |                                                 |
| \\      /  F ield         | OpenFOAM: The Open Source CFD Toolbox           |
|  \\    /   O peration     | Version:  3.0.1                                 |
|   \\  /    A nd           | Web:      www.OpenFOAM.org                      |
|    \\/     M anipulation  |                                                 |
\*---------------------------------------------------------------------------*/
FoamFile
{
    version     2.0;
    format      ascii;
    class       dictionary;
    object      blockMeshDict;
}
// * * * * * * * * * * * * * * * * * * * * * * * * * * * * * * * * * * * * * //



convertToMeters 1;

vertices
(
    (0 0 0)
    (1 0 0)
    (1 1 0)
    (0 1 0)

    (0 0 1)
    (1 0 1)
    (1 1 1)
    (0 1 1)
);

blocks
(
    hex (0 1 2 3 4 5 6 7)
    (1 1 1)
    simpleGrading (1 1 1)
);

edges
(
);

boundary
(
    inlet
    {
        type patch;
        faces
        (
           (0 3 7 4)
           (3 2 6 7)
        );
    }

    outlet
    {
        type patch;
        faces
        (
           (1 5 6 2)
           (0 4 5 1)
        );
    }

    ground
    {
        type wall;
        faces
        (
            (0 1 2 3)
        );
    }

    top //Nir
    {
        type boundarylayer;
        faces
        (
            (4 7 6 5)
        );
    }



    frontAndBack
    {
        type symmetry;
        faces
        (
//            (0 4 5 1) //angle
//            (3 2 6 7)
//            (4 7 6 5)
        );
    }

);

mergePatchPairs
(
);

// ************************************************************************* //