/*--------------------------------*- C++ -*----------------------------------*\
| =========                 |                                                 |
| \\      /  F ield         | OpenFOAM: The Open Source CFD Toolbox           |
|  \\    /   O peration     | Version:  3.0.1                                 |
|   \\  /    A nd           | Web:      www.OpenFOAM.org                      |
|    \\/     M anipulation  |                                                 |
\*---------------------------------------------------------------------------*/
FoamFile
{
    version     2.0;
    format      ascii;
    class       dictionary;
    object      fvSchemes;
}
// * * * * * * * * * * * * * * * * * * * * * * * * * * * * * * * * * * * * * //

ddtSchemes
{
    default         {{values.ddtSchemes.default}};
}

gradSchemes
{
    default         {{values.gradSchemes.default}};

    grad(U)         {{values.gradSchemes.gradU}};
    grad(k)         {{values.gradSchemes.gradK}};
    grad(epsilon)     {{values.gradSchemes.gradEpsilon}};
}

divSchemes
{
    default         {{values.divSchemes.default}};

    div(phi,U)      {{values.divSchemes.divPhiU}};

    turbulence      {{values.divSchemes.turbulence}};
      div(phi,k)    {{values.divSchemes.divPhiK}};

      div(phi,epsilon) {{values.divSchemes.divPhiEpsilon}};
      div(phi,omega) {{values.divSchemes.divPhiOmega}};


    div((nuEff*dev2(T(grad(U))))) {{values.divSchemes.moreDivSchemesProperties.divNuEff}};
}

laplacianSchemes
{
    default         {{values.laplacianSchemes.default}};
}

interpolationSchemes
{
    default         {{values.interpolationSchemes.default}};
}

snGradSchemes
{
    default         {{values.snGradSchemes.default}};
}

wallDist
{
    method {{values.wallDist.method}};
}

// ************************************************************************* //