/*--------------------------------*- C++ -*----------------------------------*\
| =========                 |                                                 |
| \\      /  F ield         | OpenFOAM: The Open Source CFD Toolbox           |
|  \\    /   O peration     | Version:  dev                                   |
|   \\  /    A nd           | Web:      www.OpenFOAM.org                      |
|    \\/     M anipulation  |                                                 |
\*---------------------------------------------------------------------------*/
FoamFile
{
    version     7.0;
    format      ascii;
    class       dictionary;
    location    "system";
    object      Neutral2018Dict;
}
// * * * * * * * * * * * * * * * * * * * * * * * * * * * * * * * * * * * * * //

C0              [0 0 0 0 0 0 0] {{C0}};

g              [0 1 -2 0 0 0 0] {{g}};

fc          	[0 0 -1 0 0 0 0] {{coriolisFactor}};

zd              [0 1 0 0 0 0 0] {{zd}};

Qh              [0 -1 1 1 0 0 0] {{Qh}};

T0              [0 0 0 1 0 0 0] {{T0}};

stable {% if stable %}false {% else %} true{% endif %};
// ************************************************************************* //
