/*--------------------------------*- C++ -*----------------------------------*\
  =========                 |
  \\      /  F ield         | OpenFOAM: The Open Source CFD Toolbox
   \\    /   O peration     | Website:  https://openfoam.org
    \\  /    A nd           | Version:  7
     \\/     M anipulation  |
\*---------------------------------------------------------------------------*/
FoamFile
{
    version     2.0;
    format      ascii;
    class       dictionary;
    object      setFieldsDict;
}
// * * * * * * * * * * * * * * * * * * * * * * * * * * * * * * * * * * * * * //
{%- import "openFOAM/utils.jinja" as utils %}

{%- macro valueByType(dataItem) -%}
        {%- if dataItem['type'] == 'scalar'    -%}
            {%- set value = dataItem['value'] -%}
        {%- else -%}
            {%- set value = toList(dataItem['value']) -%}
        {%- endif -%}
        vol{{dataItem['type'] | title}}FieldValue {{dataItem['name']}} {{value}}
{%- endmacro %}

defaultFieldValues
(
    {% for dataItem in defaultFieldValues: %}
           {{valueByType(dataItem)}}
    {%- endfor %}
);

regions
(
    {% for regionData in regions: %}
    {{regionData['type']}}
    {
        {% for params in regionData['params'] -%} {{params}} {% endfor -%};

        fieldValues
        (
            {% for dataItem in regionData['fieldValues'] %}
                    {{valueByType(dataItem)}}
            {%- endfor %}
        )
    }
    {%- endfor %}
);
