/*--------------------------------*- C++ -*----------------------------------*\
| =========                 |                                                 |
| \\      /  F ield         | OpenFOAM: The Open Source CFD Toolbox           |
|  \\    /   O peration     | Version:  3.0.1                                 |
|   \\  /    A nd           | Web:      www.OpenFOAM.org                      |
|    \\/     M anipulation  |                                                 |
\*---------------------------------------------------------------------------*/
FoamFile
{
    version     2.0;
    format      ascii;
    class       dictionary;
    object      blockMeshDict;
}
// * * * * * * * * * * * * * * * * * * * * * * * * * * * * * * * * * * * * * //



convertToMeters 1.0;

vertices
(
    (0.0 0.0 0.0 )
    (10.0 0.0 0.0 )
    (10.0 10.0 0.0 )
    (0.0 10.0 0.0 )
    (0.0 0.0 10.0 )
    (10.0 0.0 10.0 )
    (10.0 10.0 10.0 )
    (0.0 10.0 10.0 )

);

blocks
(
    hex (0 1 2 3 4 5 6 7)
    1 2 3
    simpleGrading
    (
        1
        (
            (0.2 0.3 4)
            (0.6 0.4 1)
            (0.2 0.3 0.25)
        )
        1
    )
);

edges
(
);

boundary
(
    inlet
    {
        type patch;
        faces
        (
            (0 3 2 1)
        );
    }
    sym
    {
        type symmetry;
        faces
        (
            (1 2 6 5)
            (3 7 6 2)
        );
    }

);

mergePatchPairs
(
);

// ************************************************************************* //