/*--------------------------------*- C++ -*----------------------------------*\
| =========                 |                                                 |
| \\      /  F ield         | OpenFOAM: The Open Source CFD Toolbox           |
|  \\    /   O peration     | Version:  3.0.1                                 |
|   \\  /    A nd           | Web:      www.OpenFOAM.org                      |
|    \\/     M anipulation  |                                                 |
\*---------------------------------------------------------------------------*/
FoamFile
{
    version     2.0;
    format      ascii;
    class       dictionary;
    object      blockMeshDict;
}
// * * * * * * * * * * * * * * * * * * * * * * * * * * * * * * * * * * * * * //



convertToMeters 1.0;

vertices
(

);

blocks
(
    hex (0 1 2 3 4 5 6 7)
    1 2 3
    simpleGrading
    (
        1
        (
            (0.2 0.3 4)
            (0.6 0.4 1)
            (0.2 0.3 0.25)
        )
        1
    )
);

edges
(
);

boundary
(

);

mergePatchPairs
(
);

// ************************************************************************* //