/*--------------------------------*- C++ -*----------------------------------*\
| =========                 |                                                 |
| \\      /  F ield         | OpenFOAM: The Open Source CFD Toolbox           |
|  \\    /   O peration     | Website:  https://openfoam.org                  |
|   \\  /    A nd           | Version:  10                                    |
|    \\/     M anipulation  |                                                 |
\*---------------------------------------------------------------------------*/

FoamFile
{
    format      ascii;
    class       dictionary;
    location    "system";
    object      meshQualityDict;
}

// * * * * * * * * * * * * * * * * * * * * * * * * * * * * * * * * * * * * * //

maxNonOrtho         {{ maxNonOrtho }};
maxBoundarySkewness {{ maxBoundarySkewness }};
maxInternalSkewness {{ maxInternalSkewness }};
maxConcave          {{ maxConcave }};
minVol              {{ minVol }};
minTetQuality       {{ minTetQuality }};
minArea             {{ minArea }};
minTwist            {{ minTwist }};
minDeterminant      {{ minDeterminant }};
minFaceWeight       {{ minFaceWeight }};
minVolRatio         {{ minVolRatio }};
minTriangleTwist    {{ minTriangleTwist }};
nSmoothScale        {{ nSmoothScale }};
errorReduction      {{ errorReduction }};

{%- if relaxed is defined %}
relaxed
{
    {%- for key, value in relaxed.items() %}
    {{ key }} {{ value }};
    {%- endfor %}
}
{%- endif %}

// ************************************************************************* //
