/*--------------------------------*- C++ -*----------------------------------*\
| =========                 |                                                 |
| \\      /  F ield         | OpenFOAM: The Open Source CFD Toolbox           |
|  \\    /   O peration     | Version:  3.0.1                                 |
|   \\  /    A nd           | Web:      www.OpenFOAM.org                      |
|    \\/     M anipulation  |                                                 |
\*---------------------------------------------------------------------------*/
FoamFile
{
    version     2.0;
    format      ascii;
    class       dictionary;
    object      fvSolution;
}
// * * * * * * * * * * * * * * * * * * * * * * * * * * * * * * * * * * * * * //

solvers
{
    p
    {
        solver          GAMG;
        smoother        GaussSeidel;
        cacheAgglomeration on;

        agglomerator    faceAreaPair;
        nCellsInCoarsestLevel 10;
        mergeLevels     1;
        tolerance       1e-06;
        relTol          0.1;
    }

    "(U|k|omega|epsilon)"
    {
        solver          smoothSolver;
        smoother        symGaussSeidel;
        tolerance       1e-06;
        relTol          0.1;
    }
}

SIMPLE
{
    residualControl
    {
        p               0.0001;
        U               0.0001;
        "(k|omega|epsilon)" 0.0001;
    }
    nNonOrthogonalCorrectors 5; //0 nir
    pRefCell        0;
    pRefValue       0;

}

potentialFlow
{
    nNonOrthogonalCorrectors 10;
}

relaxationFactors
{
    fields
    {
        p               0.3;
    }
    equations
    {
        U               0.7;
        "(k|omega|epsilon).*" 0.7;
    }
}

// ************************************************************************* //