/*--------------------------------*- C++ -*----------------------------------*\
| =========                 |                                                 |
| \\      /  F ield         | OpenFOAM: The Open Source CFD Toolbox           |
|  \\    /   O peration     | Version:  3.0.1                                 |
|   \\  /    A nd           | Web:      www.OpenFOAM.org                      |
|    \\/     M anipulation  |                                                 |
\*---------------------------------------------------------------------------*/
FoamFile
{
    version       2.0;
    format        ascii;
    class         dictionary;
    object        snappyHexMeshDict;
}
// * * * * * * * * * * * * * * * * * * * * * * * * * * * * * * * * * * * * * //

castellatedMesh on;
snap          off;
addLayers     on;

geometry
{

    buildings.stl
    {
        type          triSurfaceMesh;
        name          buildings;

    }

    topo.stl
    {
        type          triSurfaceMesh;
        name          topo;

    }

    refinementBox
    {
        type          searchableBox;
        min           (-250 -250   0);
        max           (250 250  10);

    }

}

castellatedMeshControls
{
    nCellsBetweenLevels 2;
    maxLocalCells 200000000;
    maxGlobalCells 200000000;

    features
    (
      { file          "topo.eMesh";
        levels        ((3 2) (20 1)); }

    );

    features
    (
      { file          "buildings.eMesh";
        levels        ((3 2) (20 1)); }

    );

    refinementSurfaces
    {

        buildings
        {
            level         (2 1);

            patchInfo { type wall; }
        }

        topo
        {
            level         (2 1);

            patchInfo { type wall; }
        }

    }

    refinementRegions
    {

        refinementBox
        {
            mode          inside;
            levels        ((1E15 1));

        }

    }
    locationInMesh (207000 738000 635);

}

snapControls
{
    explicitFeatureSnap true;
    implicitFeatureSnap false;

}

layers
{

    buildings
    {
        nSurfaceLayers 1;

    }

}

addLayersControls
{
    relativeSizes true;
    expansionRatio 1;
    finalLayerThickness 0.3;
    minThickness 0.1;
    nGrow         0;
    featureAngle 60;
    slipFeatureAngle 30;
    nRelaxIter    3;
    nSmoothSurfaceNormals 1;
    nSmoothNormals 3;
    nSmoothThickness 10;
    maxFaceThicknessRatio 0.5;
    maxThicknessToMedialRatio 0.3;
    minMedianAxisAngle 90;
    nBufferCellsNoExtrude 0;
    nLayerIter    50;

}

meshQualityControls
{

}

writeFlags
(
    scalarLevels
    layerSets
    layerFields
);

mergeTolerance 1e-06;

// ************************************************************************* //