/*--------------------------------*- C++ -*----------------------------------*\
| =========                 |                                                 |
| \\      /  F ield         | OpenFOAM: The Open Source CFD Toolbox           |
|  \\    /   O peration     | Version:  3.0.1                                 |
|   \\  /    A nd           | Web:      www.OpenFOAM.org                      |
|    \\/     M anipulation  |                                                 |
\*---------------------------------------------------------------------------*/

FoamFile
{
    version     2.0;
    format      ascii;
    class       dictionary;
    object      controlDict;
}
// * * * * * * * * * * * * * * * * * * * * * * * * * * * * * * * * * * * * * //

{%- import "openFOAM/utils.jinja"  as utils %}

{% if params %}
{{utils.handleValue(params)}}
{%- endif %}


actions
(
{% for actionData in actions: -%}
{
    name    {{actionData.name}};
    type    {{actionData.type}};
    action  {{actionData.action}};
    source  {{actionData.source}};
    {% if sourceIfno in actionData %}
    sourceInfo {
        {%- for info,data in actionData.sourceInfo.items(): -%}
            {%- if (data is sequence) and (data is not string) %}
            {{info}} {{utils.toList(data)}};
            {%- else %}
            {{info}} {{data}};
            {%-endif %}
        {% endfor %}
    }
    {% endif %}

    {%- for info,data in actionData.get("parameters",dict()).items(): -%}
    {%- if (data is sequence) and (data is not string) %}
    {{info}} {{utils.toList(data)}};
    {%- else %}
    {{info}} {{data}};
    {%-endif %}
    {% endfor %}

}
{% endfor %}
);